OpenDSS/SOURCE_1_VLN_Node.Txt

LINE-GROUND and LINE-LINE VOLTAGES BY BUS & NODE

Bus  Node    VLN (kV)   Angle      pu     Base kV    Node-Node   VLL (kV)  Angle      pu

N1 . 1       5.8785 /_   -1.6    0.8165    12.470        1-2     11.439 /_   31.5   0.91735
   - 2       7.2587 /_ -122.3    1.0082    12.470        2-3      12.47 /_  -90.0         1
   - 3       7.4297 /_  121.5     1.032    12.470        3-1     11.723 /_  146.3   0.94008
   - 4      0.29833 /_  160.3  0.041437    12.470
N2 . 1       2.9833 /_  -19.7   0.41437    12.470        1-2      9.168 /_   38.8    0.7352
   - 2       8.0248 /_ -122.7    1.1146    12.470        2-3     12.711 /_  -91.6    1.0194
   - 3       7.1631 /_  123.8   0.99494    12.470        3-1     9.7246 /_  134.3   0.77984
   - 4       2.9832 /_  -19.7   0.41437    12.470
